/*--------------------------------*- C++ -*----------------------------------*\
| =========                 |                                                 |
| \\      /  F ield         | OpenFOAM: The Open Source CFD Toolbox           |
|  \\    /   O peration     | Version:  v2012                                 |
|   \\  /    A nd           | Website:  www.openfoam.com                      |
|    \\/     M anipulation  |                                                 |
\*---------------------------------------------------------------------------*/
FoamFile
{
    version     2.0;
    format      ascii;
    class       dictionary;
    location    "system";
    object      fvSolution;
}
// * * * * * * * * * * * * * * * * * * * * * * * * * * * * * * * * * * * * * //

solvers
{
	p
	{
        solver          PCG;
        preconditioner
        {
            preconditioner          GAMG;
            smoother                DIC;
            cacheAgglomeration      true;
            nCellsInCoarsestLevel   2300; //raiz da quantidade de células total
            agglomerator            faceAreaPair;
            mergeLevels             1;    
        }
        tolerance        1e-12;
        relTol           1.0e-5;
        minIter          0;
        maxIter          1000;
	}
		
		
		pFinal
	{
		$p;
		tolerance       1e-12;
        relTol          0;
	}


    pcorr
    {
        solver          GAMG;
        smoother        DICGaussSeidel;
        tolerance       1e-06;
        relTol          0.1;
    }
    pcorrFinal
    {
        $pcorr;
        tolerance       1e-06;
        relTol          0;
    }
    "(U|k|omega)"
    {
        solver          PBiCGStab;
        preconditioner
        {
            preconditioner          GAMG;
            smoother                DILU;
            cacheAgglomeration      true;
            nCellsInCoarsestLevel   2300;
            agglomerator            faceAreaPair;
            mergeLevels             1;    
        }
        tolerance       1e-10;
        relTol          1.0e-4;
        minIter         0;
        maxIter         1000;
    }
    "(U|k|omega)Final"
    {
        $U;
        tolerance       1e-10;
        relTol          0;
    }

Phi
    {
        solver          PCG;
        preconditioner
        {
            preconditioner   GAMG;
            smoother         DICGaussSeidel;
            nPreSweeps       0;
            nPostSweeps      2;
            cacheAgglomeration on;
            agglomerator     faceAreaPair;
            nCellsInCoarsestLevel 2300;
            mergeLevels      1;
        }
        tolerance       1e-09;
        relTol          1.0e-2;
        
    }


}


potentialFlow
{
    nNonOrthogonalCorrectors 15;
    PhiRefCell      0;
    PhiRefValue     0;
}


SIMPLE
{
    momentumPredictor yes;
    nNonOrthogonalCorrectors 4;
    consistent yes;
    //pRefPoint           (0 1.25 0);
    //pRefValue       0;

    residualControl
    {
        p               1e-5;
        U               1e-4;
        

        // possibly check turbulence fields
        "(k|epsilon|omega)" 1e-3;
    }
}

relaxationFactors
{
    fields
    {
        p           0.4;
    }
    equations
    {
        U               0.6;
        
        "(k|epsilon|omega)" 0.6; // para transientes, usar pPinal = 1.0 para não afetar resultado da simulação
    }
}




// ************************************************************************* //
